MCULE-1331625608
  PyMOL3.0          3D                             0

 30 33  0  0  1  0  0  0  0  0999 V2000
  178.6217  217.3646  162.3490 N   0  0  0  0  0  0  0  0  0  0  0  0
  179.5391  218.0754  163.1099 C   0  0  0  0  0  0  0  0  0  0  0  0
  179.2787  219.1964  163.5427 O   0  0  0  0  0  0  0  0  0  0  0  0
  178.7907  215.9620  161.9806 C   0  0  0  0  0  0  0  0  0  0  0  0
  178.8867  218.6676  159.9309 O   0  0  0  0  0  0  0  0  0  0  0  0
  177.5226  218.5891  160.3534 C   0  0  2  0  0  0  0  0  0  0  0  0
  177.4156  218.0353  161.8107 C   0  0  1  0  0  0  0  0  0  0  0  0
  176.1529  217.1924  162.0522 C   0  0  0  0  0  0  0  0  0  0  0  0
  174.9732  217.7531  161.2769 C   0  0  0  0  0  0  0  0  0  0  0  0
  175.1908  217.6264  159.7727 C   0  0  0  0  0  0  0  0  0  0  0  0
  176.6522  217.8326  159.3214 C   0  0  1  0  0  0  0  0  0  0  0  0
  179.2009  217.7464  159.8411 H   0  0  0  0  0  0  0  0  0  0  0  0
  176.6716  218.4498  157.9915 N   0  0  0  0  0  0  0  0  0  0  0  0
  175.6693  219.1677  157.4002 C   0  0  0  0  0  0  0  0  0  0  0  0
  175.9737  219.4997  156.1661 N   0  0  0  0  0  0  0  0  0  0  0  0
  177.2187  218.9717  155.9486 C   0  0  0  0  0  0  0  0  0  0  0  0
  177.6782  218.3165  157.0686 C   0  0  0  0  0  0  0  0  0  0  0  0
  180.8629  217.3992  163.4193 C   0  0  0  0  0  0  0  0  0  0  0  0
  180.9922  217.0059  164.8920 C   0  0  0  0  0  0  0  0  0  0  0  0
  181.2569  218.2005  165.8134 C   0  0  0  0  0  0  0  0  0  0  0  0
  182.5892  218.7608  165.6884 N   0  0  0  0  0  0  0  0  0  0  0  0
  183.7334  218.3077  166.3110 C   0  0  0  0  0  0  0  0  0  0  0  0
  183.7756  217.1862  167.2843 C   0  0  0  0  0  0  0  0  0  0  0  0
  184.7838  218.9979  165.9160 N   0  0  0  0  0  0  0  0  0  0  0  0
  184.3061  219.9577  165.0637 C   0  0  0  0  0  0  0  0  0  0  0  0
  185.0006  220.9651  164.3794 C   0  0  0  0  0  0  0  0  0  0  0  0
  184.2821  221.8462  163.5652 C   0  0  0  0  0  0  0  0  0  0  0  0
  182.8979  221.7270  163.4351 C   0  0  0  0  0  0  0  0  0  0  0  0
  182.1880  220.7227  164.1041 C   0  0  0  0  0  0  0  0  0  0  0  0
  182.9273  219.8492  164.9128 C   0  0  0  0  0  0  0  0  0  0  0  0
  5  6  1  0  0  0  0
  6  7  1  0  0  0  0
  1  7  1  0  0  0  0
  1  2  1  0  0  0  0
  2  3  2  0  0  0  0
  2 18  1  0  0  0  0
 18 19  1  0  0  0  0
 19 20  1  0  0  0  0
 20 21  1  0  0  0  0
 21 22  1  0  0  0  0
 22 23  1  0  0  0  0
 22 24  2  0  0  0  0
 24 25  1  0  0  0  0
 25 26  2  0  0  0  0
 26 27  1  0  0  0  0
 27 28  2  0  0  0  0
 28 29  1  0  0  0  0
 29 30  2  0  0  0  0
  1  4  1  0  0  0  0
  7  8  1  0  0  0  0
  8  9  1  0  0  0  0
  9 10  1  0  0  0  0
 10 11  1  0  0  0  0
 11 13  1  0  0  0  0
 13 14  1  0  0  0  0
 14 15  2  0  0  0  0
 15 16  1  0  0  0  0
 16 17  2  0  0  0  0
  6 11  1  0  0  0  0
 13 17  1  0  0  0  0
 21 30  1  0  0  0  0
 25 30  1  0  0  0  0
  5 12  1  0  0  0  0
M  END
$$$$
